<!-- vehicle flow definition -->
<routes>
	<routeDistribution id="routedist1">
		<route id="r1"
			   edges="A gneE1 gneE2 gneE3 gneE4 gneE5 gneE6 gneE7 gneE8 gneE9 gneE10 gneE11 gneE12 gneE13 gneE14 gneE15 gneE16 gneE17 gneE18 B"
			   probability="0.25"/>
		<route id="r5"
			   edges="gneE2 gneE3 gneE4 gneE5 gneE6 gneE7 gneE8 gneE9 gneE10 gneE11 gneE12 gneE13 gneE14 gneE15 gneE16 gneE17 gneE18 B"
			   probability="0.25"/>
		<route id="r6"
			   edges="gneE4 gneE5 gneE6 gneE7 gneE8 gneE9 gneE10 gneE11 gneE12 gneE13 gneE14 gneE15 gneE16 gneE17 gneE18 B"
			   probability="0.2"/>
		<route id="r3" edges="gneE11 gneE12 gneE13 gneE14 gneE15 gneE16 gneE17 gneE18 B" probability="0.2"/>
		<route id="r4" edges="gneE14 gneE15 gneE16 gneE17 gneE18 B" probability="0.1"/>
	</routeDistribution>
	<route id="r1" edges="A gneE1 gneE2 gneE3 gneE4 gneE5 gneE6 gneE7 gneE8 gneE9 gneE10 gneE11 gneE12 gneE13 gneE14 gneE15 gneE16 gneE17 gneE18 B"/>
	<route id="r7"
		   edges="gneE4 gneE5 gneE6 gneE7 gneE8 gneE9 gneE10 gneE11 gneE12 gneE13 gneE14 gneE15 gneE16 gneE17 gneE18 B"/>

	<vType id="car1" length="5.2" accel="4" decel="7" sigma="0" probability="0.2"/>
	<vType id="ego" length="5.2" accel="4" decel="7" sigma="0"/>
	<vType id="car2" length="5.2" accel="5" decel="6" sigma="0.5" speedFactor="normc(1,0.3,0.6,1.1)" probability="0.1"/>
	<vType id="car4" length="4.5" accel="5" decel="6" sigma="0.8" speedFactor="normc(0.9,0.45,0.6,1.2)"
		   probability="0.3"/>
	<vType id="car3" length="5" accel="5" decel="6" sigma="1" speedFactor="normc(0.8,0.2,0.6,1.1)" probability="0.4"/>
  	<vTypeDistribution id="typedist1" vTypes="car1 car2 car3 car4"/>
	<flow id="carflow1" type="typedist1" route="r1" beg="0" end="3600" departLane="random" vehsPerHour="3000"/>
	<!--	<flow id="carflow2" type="typedist1" route="r7" beg="0" end="6" departLane="random" vehsPerHour="3000"/>-->
    <vehicle id="ego" type="ego" depart="5" route="r1" color="1,1,1" departSpeed="30" departLane="random">
		</vehicle>
</routes>



