<!-- vehicle flow definition -->
<routes>
	<route id="r1" edges="A gneE1 gneE2 gneE3 gneE4 gneE5 gneE6 gneE7 gneE8 gneE9 gneE10 gneE11 gneE12 gneE13 gneE14 gneE15 gneE16 gneE17 gneE18 B"/>
	<route id="r2"
		   edges="gneE5 gneE6 gneE7 gneE8 gneE9 gneE10 gneE11 gneE12 gneE13 gneE14 gneE15 gneE16 gneE17 gneE18 B"/>
	<vType id="car1" length="5.2" accel="4" decel="7" sigma="0" maxSpeed="50"/>
	<vType id="car2" length="5.2" accel="5" decel="6" sigma="1" speedFactor="normc(1,0.1,0.2,2)"/>
	<vType id="car4" length="4.5" accel="5" decel="6" sigma="1" speedFactor="normc(1,0.1,0.2,2)"/>
	<vType id="car3" length="3.7" accel="5" decel="6" sigma="1" speedFactor="normc(1,0.1,0.2,2)" />
	<flow id="carflow1" type="car2" route="r1" beg="0" end="3600" color="0,0,1" maxSpeed="25"
		  speedFactor="normc(1,0.2,0.2,2)" departLane="2" vehsPerHour="500"/>
	<flow id="carflow2" type="car3" route="r1" beg="0" end="3600" color="1,0,0" maxSpeed="30"
		  speedFactor="normc(1,0.2,0.2,2)" departLane="1" vehsPerHour="400"/>
	<flow id="carflow3" type="car4" route="r1" beg="0" end="3600" color="0,1,0" maxSpeed="40"
		  speedFactor="normc(1,0.2,0.2,2)" departLane="0" vehsPerHour="500"/>
	<flow id="carflow4" type="car2" route="r2" beg="3" end="3600" color="0,0,1" maxSpeed="25"
		  speedFactor="normc(1,0.2,0.2,2)" departLane="2" vehsPerHour="600"/>
	<flow id="carflow6" type="car3" route="r2" beg="3" end="3600" color="1,0,0" maxSpeed="30"
		  speedFactor="normc(1,0.2,0.2,2)" departLane="1" vehsPerHour="600"/>
	<flow id="carflow5" type="car4" route="r2" beg="3" end="3600" color="0,1,0" maxSpeed="40"
		  speedFactor="normc(1,0.2,0.2,2)" departLane="0" vehsPerHour="500"/>
	<vehicle id="ego" type="car1" depart="3" route="r1" color="1,1,1" departSpeed="30" departLane="2">
	</vehicle>

</routes>



