<!-- vehicle flow definition -->
<routes>
	<route id="r1" edges="A gneE1 gneE2 gneE3 gneE4 gneE5 gneE6 gneE7 gneE8 gneE9 gneE10 gneE11 gneE12 gneE13 gneE14 gneE15 gneE16 gneE17 gneE18 B C"/>
	<vType id="car1" length="4.5" accel="4" decel="7" sigma="0.4"/>
	<vType id="car2" length="5.2" accel="5" decel="6" speedFactor="normc(1,0.1,0.2,2)" />
	<flow id="carflow1"  type="car2" route="r1" beg="0" end="10" departSpeed="random" departLane="random" number ="150"/>

</routes>



